/batch
/config,noeldb,1     ! force off writing results to database
*get,_wallstrt,active,,time,wall
! ANSYS input file written by Workbench version 2022 R1
! File used for geometry attach: F:\local disk\exp 2\60 and 53_files\dp0\SYS\DM\SYS.agdb
/title,60 and 53--Static Structural (A5)
! ****** Begin Custom Load Command Snippet ******
/COM, ACT Extensions:
/COM,     LSDYNA, 2021.1
/COM,     5f463412-bd3e-484b-87e7-cbc0a665e474, wbex
/COM,
! ****** End   Custom Load Command Snippet ******
*DIM,_wb_ProjectScratch_dir,string,248
_wb_ProjectScratch_dir(1) = 'F:\local disk\exp 2\_ProjectScratch\ScrD005\'
*DIM,_wb_SolverFiles_dir,string,248
_wb_SolverFiles_dir(1) = 'F:\local disk\exp 2\60 and 53_files\dp0\SYS\MECH\'
*DIM,_wb_userfiles_dir,string,248
_wb_userfiles_dir(1) = 'F:\local disk\exp 2\60 and 53_files\user_files\'
/com,--- Data in consistent NMM units. See Solving Units in the help system for more information.
/units,MPA
/nopr
/wb,file,start              !  signify a WB generated input file
/prep7
! Turn off shape checking because checks already performed inside WB mesher.
! See help system for more information.
SHPP,OFF,,NOWARN
/nolist
etcon,set             ! allow ANSYS to choose best KEYOP's for 180x elements, resets any applicable keyopt to MAPDL defaults
/com,*********** Nodes for the whole assembly ***********
nblock,3,,149
(1i9,3e20.9e3)
        1     4.000000000E+03     0.000000000E+00     0.000000000E+00
        2     4.000000000E+03     3.000000000E+03     0.000000000E+00
        3     4.000000000E+03     2.307692308E+02     0.000000000E+00
        4     4.000000000E+03     4.615384615E+02     0.000000000E+00
        5     4.000000000E+03     6.923076923E+02     0.000000000E+00
        6     4.000000000E+03     9.230769231E+02     0.000000000E+00
        7     4.000000000E+03     1.153846154E+03     0.000000000E+00
        8     4.000000000E+03     1.384615385E+03     0.000000000E+00
        9     4.000000000E+03     1.615384615E+03     0.000000000E+00
       10     4.000000000E+03     1.846153846E+03     0.000000000E+00
       11     4.000000000E+03     2.076923077E+03     0.000000000E+00
       12     4.000000000E+03     2.307692308E+03     0.000000000E+00
       13     4.000000000E+03     2.538461538E+03     0.000000000E+00
       14     4.000000000E+03     2.769230769E+03     0.000000000E+00
       15     0.000000000E+00     3.000000000E+03     0.000000000E+00
       16     3.764705882E+03     3.000000000E+03     0.000000000E+00
       17     3.529411765E+03     3.000000000E+03     0.000000000E+00
       18     3.294117647E+03     3.000000000E+03     0.000000000E+00
       19     3.058823529E+03     3.000000000E+03     0.000000000E+00
       20     2.823529412E+03     3.000000000E+03     0.000000000E+00
! ... 117 like lines cut
/wb,elem,start            !  set before creation of elements
/com,*********** Elements for Body 1 "Line Body" ***********
et,1,188
keyo,1,3,2
eblock,19,solid,,68
(19i9)
        1        1        1        1        0        0        0        0        3        0        1        1        3       69
        1        1        1        1        0        0        0        0        3        0        2        3        4       70
        1        1        1        1        0        0        0        0        3        0        3        4        5       71
        1        1        1        1        0        0        0        0        3        0        4        5        6       72
        1        1        1        1        0        0        0        0        3        0        5        6        7       73
        1        1        1        1        0        0        0        0        3        0        6        7        8       74
        1        1        1        1        0        0        0        0        3        0        7        8        9       75
        1        1        1        1        0        0        0        0        3        0        8        9       10       76
        1        1        1        1        0        0        0        0        3        0        9       10       11       77
        1        1        1        1        0        0        0        0        3        0       10       11       12       78
        1        1        1        1        0        0        0        0        3        0       11       12       13       79
        1        1        1        1        0        0        0        0        3        0       12       13       14       80
        1        1        1        1        0        0        0        0        3        0       13       14        2       81
        1        1        1        1        0        0        0        0        3        0       14        2       16       82
        1        1        1        1        0        0        0        0        3        0       15       16       17       83
        1        1        1        1        0        0        0        0        3        0       16       17       18       84
        1        1        1        1        0        0        0        0        3        0       17       18       19       85
        1        1        1        1        0        0        0        0        3        0       18       19       20       86
        1        1        1        1        0        0        0        0        3        0       19       20       21       87
        1        1        1        1        0        0        0        0        3        0       20       21       22       88
! ... 49 like lines cut
!Material Id = {F2EA7E9C-BAA3-4FF4-9609-5D4BE5B5504D}
/wb,elem,end               !  done creating elements
/com,*********** Send User Defined Coordinate System(s) ***********
csys,0
toffst,273.15,  ! Temperature offset from absolute zero
/com,*********** Set Reference Temperature ***********
tref,22.
/wb,mat,start              !  starting to send materials
/com,*********** Send Materials ***********
MP,EX,1,210000,	! tonne s^-2 mm^-1
MP,NUXY,1,0.3,
MP,UVID,1,a31130bb-14f0-4603-88da-c4f7c34b5688

/wb,mat,end                !  done sending materials
/com,*********** Send Beam Properties ***********
SECTYPE,1,BEAM,RECT
SECDATA,500.,200.
secoffset,cent

!************************* Model Summary ********************
!Line Body,	mat1,	matid,	1
!************************* End Model Summary ********************
! get the diagonal of the bounding box. Needed later for other things
*get,_xmin,node,,mnloc,x
*get,_ymin,node,,mnloc,y
*get,_zmin,node,,mnloc,z
*get,_xmax,node,,mxloc,x
*get,_ymax,node,,mxloc,y
*get,_zmax,node,,mxloc,z
_ASMDIAG=(_xmax-_xmin)*(_xmax-_xmin)+(_ymax-_ymin)*(_ymax-_ymin)+(_zmax-_zmin)*(_zmax-_zmin)
_ASMDIAG=SQRT(_ASMDIAG)
/wb,contact,start          !  starting to send contact
/wb,contact,end            !  done creating contacts
/golist
/wb,load,start             !  starting to send loads
/com,*********** Fixed Supports ***********
CMBLOCK,_FIXEDSU,NODE,        2
(8i10)
        15        32
cmsel,s,_FIXEDSU
d,all,all
nsel,all
/com,******* Constant Zero Displacement Y *******
CMBLOCK,_DISPZEROUY,NODE,        1
(8i10)
         1
cmsel,s,_DISPZEROUY
d,all,uy,0
nsel,all
/com,******* Constant Zero Displacement Z *******
CMBLOCK,_DISPZEROUZ,NODE,        1
(8i10)
         1
cmsel,s,_DISPZEROUZ
d,all,uz,0
nsel,all
/com,*********** Define Vertex Force Using Follower Elements ***********
et,2,201
keyo,2,1,1           ! Keep the direction constant
keyo,2,2,1           ! Apply Forces only, not moment
mat,2
real,2
type,2
en,69,2
r,2
rmod,2,1,1.0,              ! FX
mat,3
real,3
type,2
en,70,2
r,3
rmod,3,2,1.0,              ! FY
mat,4
real,4
type,2
en,71,2
r,4
rmod,4,3,1.0,              ! FZ
/com,*********** Define Vertex Force Using Follower Elements ***********
et,5,201
keyo,5,1,1           ! Keep the direction constant
keyo,5,2,1           ! Apply Forces only, not moment
mat,5
real,5
type,5
en,72,1
r,5
rmod,5,1,1.0,              ! FX
mat,6
real,6
type,5
en,73,1
r,6
rmod,6,2,1.0,              ! FY
mat,7
real,7
type,5
en,74,1
r,7
rmod,7,3,1.0,              ! FZ
/gst,on,on
fini
*get,_numnode,node,0,count
*get,_numelem,elem,0,count
*get, _MAXELEMNUM, elem, 0, NUM, MAX
*get, _MAXNODENUM, node, 0, NUM, MAX
*get, _MAXELEMTYPE, etyp, 0, NUM, MAX
*get, _MAXREALCONST, real, 0, NUM, MAX
/go
/wb,load,end               !  done creating loads
/com,--- Number of total nodes = %_numnode%
/com,--- Number of contact elements = 0
/com,--- Number of spring elements = 0
/com,--- Number of bearing elements = 0
/com,--- Number of solid elements = 68
/com,--- Number of condensed parts = 0
/com,--- Number of total elements = %_numelem%
*get,_wallbsol,active,,time,wall
/com,****************************************************************************
/com,*************************    SOLUTION       ********************************
/com,****************************************************************************
/solu
antype,0                   ! static analysis
_thickRatio=  0     ! Ratio of thick parts in the model
eqsl,sparse,,,,,1
cntr,print,1               ! print out contact info and also make no initial contact an error
dmpoption,emat,no             ! Don't combine emat file for DANSYS
dmpoption,esav,no             ! Don't combine esav file for DANSYS
nldiag,cont,iter           ! print out contact info each equilibrium iteration
rescontrol,,none                 ! Do not keep any restart files
/com,****************************************************
/com,******************* SOLVE FOR LS 1 OF 1 ****************
esel,s,real,,2
sfe,all,1,pres,1,0.
esel,s,real,,3
sfe,all,1,pres,1,-2500.
esel,s,real,,4
sfe,all,1,pres,1,0.
esel,s,real,,5
sfe,all,1,pres,1,2000.
esel,s,real,,6
sfe,all,1,pres,1,0.
esel,s,real,,7
sfe,all,1,pres,1,0.
esel,all
/nopr
/gopr
nsub,1,1,1
time,1.
outres,erase
outres,all,none
outres,nsol,all,
outres,rsol,all
outres,eangl,all
outres,etmp,all
outres,veng,all
outres,strs,all,
outres,srfs,all,
outres,bkstr,all,
outres,epel,all,
outres,eppl,all,
outres,cont,all,
outres,nldat,all,
/nopr
esel,s,type,,1
cm,_elmisc,elem
esel,all
/gopr
outres,misc,all,_elmisc
stabilize,off                   ! Stabilization turned OFF by user
! *********** WB SOLVE COMMAND ***********
! check interactive state
*get,ANSINTER_,active,,int
*if,ANSINTER_,ne,0,then
/eof
*endif
solve
/com *************** Write FE CONNECTORS ********* 
CEWRITE,file,ce,,INTE
/com,****************************************************
/com,*************** FINISHED SOLVE FOR LS 1 *************
*get,_wallasol,active,,time,wall
/nopr
*get,_numnode,node,0,count
*get,_numelem,elem,0,count
*get, _MAXELEMNUM, elem, 0, NUM, MAX
*get, _MAXNODENUM, node, 0, NUM, MAX,,,INTERNAL
*get, _MAXELEMTYPE, etyp, 0, NUM, MAX
*get, _MAXREALCONST, real, 0, NUM, MAX
/gopr
/post1
xmlo,ENCODING,ISO-8859-1
xmlo,parm
/xml,parm,xml
fini
/gopr
*get,_walldone,active,,time,wall
_preptime=(_wallbsol-_wallstrt)*3600
_solvtime=(_wallasol-_wallbsol)*3600
_posttime=(_walldone-_wallasol)*3600
_totaltim=(_walldone-_wallstrt)*3600
*get,_dlbratio,active,0,solu,dlbr
*get,_combtime,active,0,solu,comb
*get,_ssmode,active,0,solu,ssmm
*get,_ndofs,active,0,solu,ndof
*get,_sol_end_time,active,0,set,time
*if,_sol_end_time,eq,1.000000,then
/fclean				!clean distributed files
*endif
/com,--- Total number of nodes = %_numnode%
/com,--- Total number of elements = %_numelem%
/com,--- Element load balance ratio = %_dlbratio%
/com,--- Time to combine distributed files = %_combtime%
/com,--- Sparse memory mode = %_ssmode%
/com,--- Number of DOF = %_ndofs%
/wb,file,end               ! done with WB generated input
