/batch
/config,noeldb,1     ! force off writing results to database
*get,_wallstrt,active,,time,wall
! ANSYS input file written by Workbench version 2022 R1
! File used for geometry attach: C:\Users\purus\AppData\Local\Temp\WB_purus_13768_2\wbnew_files\dp0\SYS\DM\SYS.agdb
/title,wbnew--Static Structural (A5)
! ****** Begin Custom Load Command Snippet ******
/COM, ACT Extensions:
/COM,     LSDYNA, 2021.1
/COM,     5f463412-bd3e-484b-87e7-cbc0a665e474, wbex
/COM,
! ****** End   Custom Load Command Snippet ******
*DIM,_wb_ProjectScratch_dir,string,248
_wb_ProjectScratch_dir(1) = 'C:\Users\purus\AppData\Local\Temp\WB_purus_13768_2\_ProjectScratch\Scr356C\'
*DIM,_wb_SolverFiles_dir,string,248
_wb_SolverFiles_dir(1) = 'C:\Users\purus\AppData\Local\Temp\WB_purus_13768_2\wbnew_files\dp0\SYS\MECH\'
*DIM,_wb_userfiles_dir,string,248
_wb_userfiles_dir(1) = 'C:\Users\purus\AppData\Local\Temp\WB_purus_13768_2\wbnew_files\user_files\'
/com,--- Data in consistent MKS units. See Solving Units in the help system for more information.
/units,MKS
/nopr
/wb,file,start              !  signify a WB generated input file
/prep7
! Turn off shape checking because checks already performed inside WB mesher.
! See help system for more information.
SHPP,OFF,,NOWARN
/nolist
etcon,set             ! allow ANSYS to choose best KEYOP's for 180x elements, resets any applicable keyopt to MAPDL defaults
/com,*********** Nodes for the whole assembly ***********
nblock,3,,485
(1i9,3e20.9e3)
        1    -0.000000000E+00     1.000000000E+00     0.000000000E+00
        2     0.000000000E+00     0.000000000E+00     0.000000000E+00
        3    -2.109423747E-16     9.500000000E-01     0.000000000E+00
        4    -1.998401444E-16     9.000000000E-01     0.000000000E+00
        5    -1.887379142E-16     8.500000000E-01     0.000000000E+00
        6    -1.776356839E-16     8.000000000E-01     0.000000000E+00
        7    -1.665334537E-16     7.500000000E-01     0.000000000E+00
        8    -1.554312234E-16     7.000000000E-01     0.000000000E+00
        9    -1.443289932E-16     6.500000000E-01     0.000000000E+00
       10    -1.332267630E-16     6.000000000E-01     0.000000000E+00
       11    -1.221245327E-16     5.500000000E-01     0.000000000E+00
       12    -1.110223025E-16     5.000000000E-01     0.000000000E+00
       13    -9.992007222E-17     4.500000000E-01     0.000000000E+00
       14    -8.881784197E-17     4.000000000E-01     0.000000000E+00
       15    -7.771561172E-17     3.500000000E-01     0.000000000E+00
       16    -6.661338148E-17     3.000000000E-01     0.000000000E+00
       17    -5.551115123E-17     2.500000000E-01     0.000000000E+00
       18    -4.440892099E-17     2.000000000E-01     0.000000000E+00
       19    -3.330669074E-17     1.500000000E-01     0.000000000E+00
       20    -2.220446049E-17     1.000000000E-01     0.000000000E+00
! ... 422 like lines cut
/wb,elem,start            !  set before creation of elements
/com,*********** Elements for Body 1 "Surface Body" ***********
et,1,181
keyo,1,1,0       ! bending and membrane stiffness
keyo,1,3,2
eblock,19,solid,,400
(19i9)
        1        1        1        1        0        0        0        0        4        0        1       83       87       82       81
        1        1        1        1        0        0        0        0        4        0        2       81       84       88       83
        1        1        1        1        0        0        0        0        4        0        3       82       86       85       81
        1        1        1        1        0        0        0        0        4        0        4       85       89       84       81
        1        1        1        1        0        0        0        0        4        0        5       82      372       90       86
        1        1        1        1        0        0        0        0        4        0        6       87       92      372       82
        1        1        1        1        0        0        0        0        4        0        7       83      385       91       87
        1        1        1        1        0        0        0        0        4        0        8       88       94      385       83
        1        1        1        1        0        0        0        0        4        0        9       84       96       93       88
        1        1        1        1        0        0        0        0        4        0       10       89       97       96       84
        1        1        1        1        0        0        0        0        4        0       11       86       98      367       85
        1        1        1        1        0        0        0        0        4        0       12      367       95       89       85
        1        1        1        1        0        0        0        0        4        0       13       90       99       98       86
        1        1        1        1        0        0        0        0        4        0       14       91      100       92       87
        1        1        1        1        0        0        0        0        4        0       15       93      101       94       88
        1        1        1        1        0        0        0        0        4        0       16       95      102       97       89
        1        1        1        1        0        0        0        0        4        0       17      372      360      104       90
        1        1        1        1        0        0        0        0        4        0       18       90      104      405       99
        1        1        1        1        0        0        0        0        4        0       19      385      365      108       91
        1        1        1        1        0        0        0        0        4        0       20       91      108      107      100
! ... 381 like lines cut
!Material Id = {D9144981-0EA7-4BF8-8D21-3BCFC232BEEB}
/wb,elem,end               !  done creating elements
/com,*********** Send User Defined Coordinate System(s) ***********
csys,0
toffst,273.15,  ! Temperature offset from absolute zero
/com,*********** Set Reference Temperature ***********
tref,22.
/wb,mat,start              !  starting to send materials
/com,*********** Send Materials ***********
Temperature = 'TEMP' ! Temperature
MP,DENS,1,7850,	! kg m^-3
MP,ALPX,1,1.2e-05,	! C^-1
MP,C,1,434,	! J kg^-1 C^-1
MP,KXX,1,60.5,	! W m^-1 C^-1
MP,RSVX,1,1.7e-07,	! kg m^3 A^-2 s^-3
MP,EX,1,200000000000,	! Pa
MP,NUXY,1,0.3,
MP,MURX,1,10000,
MP,UVID,1,546c9dfc-a8e3-4149-9449-c0e55bce3fea
MP,UMID,1,59002a79-71c2-428e-906b-55d7dbee100e

/wb,mat,end                !  done sending materials
/com,*********** Send Sheet Properties ***********
sectype,1,shell
secdata,6.e-003
secoff,mid

!************************* Model Summary ********************
!Surface Body,	Structural Steel,	matid,	1
!************************* End Model Summary ********************
! get the diagonal of the bounding box. Needed later for other things
*get,_xmin,node,,mnloc,x
*get,_ymin,node,,mnloc,y
*get,_zmin,node,,mnloc,z
*get,_xmax,node,,mxloc,x
*get,_ymax,node,,mxloc,y
*get,_zmax,node,,mxloc,z
_ASMDIAG=(_xmax-_xmin)*(_xmax-_xmin)+(_ymax-_ymin)*(_ymax-_ymin)+(_zmax-_zmin)*(_zmax-_zmin)
_ASMDIAG=SQRT(_ASMDIAG)
/wb,contact,start          !  starting to send contact
/wb,contact,end            !  done creating contacts
/golist
/wb,load,start             !  starting to send loads
/com,******* Constant Zero Displacement X *******
CMBLOCK,_DISPZEROUX,NODE,        1
(8i10)
         1
cmsel,s,_DISPZEROUX
d,all,ux,0
nsel,all
/com,******* Constant Zero Displacement Y *******
CMBLOCK,_DISPZEROUY,NODE,        2
(8i10)
         2        22
cmsel,s,_DISPZEROUY
d,all,uy,0
nsel,all
/com,******* Constant Zero Displacement Z *******
CMBLOCK,_DISPZEROUZ,NODE,       80
(8i10)
         1         2         3         4         5         6         7         8
         9        10        11        12        13        14        15        16
        17        18        19        20        21        22        23        24
        25        26        27        28        29        30        31        32
        33        34        35        36        37        38        39        40
        41        42        43        44        45        46        47        48
        49        50        51        52        53        54        55        56
        57        58        59        60        61        62        63        64
        65        66        67        68        69        70        71        72
        73        74        75        76        77        78        79        80

cmsel,s,_DISPZEROUZ
d,all,uz,0
nsel,all
/com,*********** Define Pressure Using Surface Effect Elements "Pressure" ***********
et,2,154
eblock,10,,,400
(15i9)
      401        2        2        2        0       83       87       82       81
      402        2        2        2        0       81       84       88       83
      403        2        2        2        0       82       86       85       81
      404        2        2        2        0       85       89       84       81
      405        2        2        2        0       82      372       90       86
      406        2        2        2        0       87       92      372       82
      407        2        2        2        0       83      385       91       87
      408        2        2        2        0       88       94      385       83
      409        2        2        2        0       84       96       93       88
      410        2        2        2        0       89       97       96       84
      411        2        2        2        0       86       98      367       85
      412        2        2        2        0      367       95       89       85
      413        2        2        2        0       90       99       98       86
      414        2        2        2        0       91      100       92       87
      415        2        2        2        0       93      101       94       88
      416        2        2        2        0       95      102       97       89
      417        2        2        2        0      372      360      104       90
      418        2        2        2        0       90      104      405       99
      419        2        2        2        0      385      365      108       91
      420        2        2        2        0       91      108      107      100
! ... 381 like lines cut
esel,s,type,,2
keyop,2,7,0                ! Use deformed area for application of load
esel,all
esel,all
/gst,on,on
fini
*get,_numnode,node,0,count
*get,_numelem,elem,0,count
*get, _MAXELEMNUM, elem, 0, NUM, MAX
*get, _MAXNODENUM, node, 0, NUM, MAX
*get, _MAXELEMTYPE, etyp, 0, NUM, MAX
*get, _MAXREALCONST, real, 0, NUM, MAX
/go
/wb,load,end               !  done creating loads
/com,--- Number of total nodes = %_numnode%
/com,--- Number of contact elements = 400
/com,--- Number of spring elements = 0
/com,--- Number of bearing elements = 0
/com,--- Number of solid elements = 400
/com,--- Number of condensed parts = 0
/com,--- Number of total elements = %_numelem%
*get,_wallbsol,active,,time,wall
/com,****************************************************************************
/com,*************************    SOLUTION       ********************************
/com,****************************************************************************
/solu
antype,0                   ! static analysis
_thickRatio=  0     ! Ratio of thick parts in the model
eqsl,sparse,,,,,1
cntr,print,1               ! print out contact info and also make no initial contact an error
dmpoption,emat,no             ! Don't combine emat file for DANSYS
dmpoption,esav,no             ! Don't combine esav file for DANSYS
nldiag,cont,iter           ! print out contact info each equilibrium iteration
rescontrol,,none                 ! Do not keep any restart files
/com,****************************************************
/com,******************* SOLVE FOR LS 1 OF 1 ****************
esel,s,type,,2
nsle
sf,all,pres,1.e-002
nsel,all
esel,all
esel,all
/nopr
/gopr
nsub,1,1,1
time,1.
outres,erase
outres,all,none
outres,nsol,all,
outres,rsol,all
outres,eangl,all
outres,etmp,all
outres,veng,all
outres,strs,all,
outres,epel,all,
outres,eppl,all,
outres,cont,all,
! *********** WB SOLVE COMMAND ***********
! check interactive state
*get,ANSINTER_,active,,int
*if,ANSINTER_,ne,0,then
/eof
*endif
solve
/com *************** Write FE CONNECTORS ********* 
CEWRITE,file,ce,,INTE
/com,****************************************************
/com,*************** FINISHED SOLVE FOR LS 1 *************
*get,_wallasol,active,,time,wall
/nopr
*get,_numnode,node,0,count
*get,_numelem,elem,0,count
*get, _MAXELEMNUM, elem, 0, NUM, MAX
*get, _MAXNODENUM, node, 0, NUM, MAX,,,INTERNAL
*get, _MAXELEMTYPE, etyp, 0, NUM, MAX
*get, _MAXREALCONST, real, 0, NUM, MAX
/gopr
/post1
xmlo,ENCODING,ISO-8859-1
xmlo,parm
/xml,parm,xml
fini
/gopr
*get,_walldone,active,,time,wall
_preptime=(_wallbsol-_wallstrt)*3600
_solvtime=(_wallasol-_wallbsol)*3600
_posttime=(_walldone-_wallasol)*3600
_totaltim=(_walldone-_wallstrt)*3600
*get,_dlbratio,active,0,solu,dlbr
*get,_combtime,active,0,solu,comb
*get,_ssmode,active,0,solu,ssmm
*get,_ndofs,active,0,solu,ndof
*get,_sol_end_time,active,0,set,time
*if,_sol_end_time,eq,1.000000,then
/fclean				!clean distributed files
*endif
/com,--- Total number of nodes = %_numnode%
/com,--- Total number of elements = %_numelem%
/com,--- Element load balance ratio = %_dlbratio%
/com,--- Time to combine distributed files = %_combtime%
/com,--- Sparse memory mode = %_ssmode%
/com,--- Number of DOF = %_ndofs%
/wb,file,end               ! done with WB generated input
